/*--------------------------------*- C++ -*----------------------------------*\
| =========                 |                                                 |
| \\      /  F ield         | OpenFOAM: The Open Source CFD Toolbox           |
|  \\    /   O peration     | Version:  v1812                                 |
|   \\  /    A nd           | Web:      www.OpenFOAM.com                      |
|    \\/     M anipulation  |                                                 |
\*---------------------------------------------------------------------------*/
FoamFile
{
    version     2.0;
    format      ascii;
    class       polyBoundaryMesh;
    location    "constant/polyMesh";
    object      boundary;
}
// * * * * * * * * * * * * * * * * * * * * * * * * * * * * * * * * * * * * * //

6
(
    maxY
    {
        type            wall;
        inGroups        1(wall);
        nFaces          200;
        startFace       39700;
    }
    minX
    {
        type            patch;
        nFaces          100;
        startFace       39900;
    }
    maxX
    {
        type            patch;
        nFaces          100;
        startFace       40000;
    }
    minY
    {
        type            wall;
        inGroups        1(wall);
        nFaces          200;
        startFace       40100;
    }
    minZ
    {
        type            wall;
        inGroups        1(wall);
        nFaces          20000;
        startFace       40300;
    }
    maxZ
    {
        type            wall;
        inGroups        1(wall);
        nFaces          20000;
        startFace       60300;
    }
)

// ************************************************************************* //
