/*--------------------------------*- C++ -*----------------------------------*\
| =========                 |                                                 |
| \\      /  F ield         | OpenFOAM: The Open Source CFD Toolbox           |
|  \\    /   O peration     | Version:  v1812                                 |
|   \\  /    A nd           | Web:      www.OpenFOAM.com                      |
|    \\/     M anipulation  |                                                 |
\*---------------------------------------------------------------------------*/
FoamFile
{
    version     2.0;
    format      ascii;
    class       volVectorField;
    location    "0/water";
    object      U;
}
// * * * * * * * * * * * * * * * * * * * * * * * * * * * * * * * * * * * * * //

dimensions      [ 0 1 -1 0 0 0 0 ];

internalField   uniform ( 0.001 0 0 );

boundaryField
{
    minX
    {
        type            fixedValue;
        value           uniform ( 0.001 0 0 );
    }
    maxX
    {
        type            inletOutlet;
        value           uniform ( 0.01 0 0 );
        inletValue      uniform ( 0 0 0 );
    }
    minZ
    {
        type            noSlip;
        value           uniform ( 0.01 0 0 );
    }
    maxZ
    {
        type            noSlip;
        value           uniform ( 0.01 0 0 );
    }
    water_to_heater
    {
        type            noSlip;
        value           uniform ( 0 0 0 );
    }
}


// ************************************************************************* //
